<additional>
	<edgeData id="gneE2.0" freq="60" file="aggregated_beg.xml"/>
	<edgeData id="gneE2.108" freq="60" file="aggregated_end.xml"/>
</additional>
